18
 generated by VMD
  C          0.000000        0.000000        0.000000
  C         -1.478000        0.034000       -0.421000
  C         -2.369000        0.510000        0.737000
  C         -2.172000       -0.371000        1.981000
  C         -0.695000       -0.406000        2.402000
  C          0.126000        0.573000        1.459000
  H          0.372000       -1.049000       -0.024000
  H          0.603000        0.622000       -0.699000
  H         -1.595000        0.731000       -1.282000
  H         -1.793000       -0.988000       -0.728000
  H         -2.107000        1.562000        0.991000
  H         -3.435000        0.461000        0.421000
  H         -2.781000        0.038000        2.818000
  H         -2.510000       -1.407000        1.750000
  H         -0.599000       -0.075000        3.460000
  H         -0.300000       -1.442000        2.301000
  H         -0.301000        1.600000        1.507000
  H          1.194000        0.601000        1.771000
