35

N      16.428099678066712     13.199510347653417      8.504777651397639
H      15.598350435326836     12.660518178989406      8.838453469887094
H      16.985214488224575     13.497096902386120      9.302214674244714
H      16.034083380505589     14.037111064666862      8.023955999516240
C      17.232915573702137     12.373975674078082      7.517256574014863
H      17.955616578379797     13.058596827158580      7.001755138417587
C      17.882061515646786     11.150676686524518      8.117609108736577
H      18.621391686628343     11.377315687835571      8.884008898447000
H      17.145084362552918     10.469163819274607      8.572318912453332
H      18.405617587153788     10.580684951926505      7.343924134159860
C      16.107415622232583     11.867960208035417      6.536582334198259
O      15.021632689943921     11.699433026137063      7.070072931436291
N      16.474143297324055     11.681054120823704      5.241976235520106
H      17.453796790305759     11.804274083834457      4.951741634205865
C      15.521995554986324     11.429243809709048      4.117832387928541
H      15.667866340806553     12.257053557960432      3.371241297115034
C      15.871055038716316     10.089100748866974      3.473611136012772
H      15.749545287995581      9.275413050976065      4.206364699219133
H      15.115069602632879      9.864255159452934      2.695877480865952
C      17.280661403571930     10.070751567021455      2.846808157794708
H      18.037139474546443     10.283866703094720      3.640915865162846
C      17.448898349494673     11.115333349224047      1.735998904429336
H      18.493011448693853     11.216715261254324      1.437449872753084
H      16.870628013651597     10.851144409809377      0.851853613667617
H      17.107425682714346     12.102836779366580      2.075705259127812
C      17.604083315300532      8.672459495202872      2.303701795152122
H      18.597050428883392      8.636603825601927      1.828165521567424
H      17.607197906089240      7.915215495201841      3.091877037570100
H      16.864313208934586      8.343620432184252      1.553287579223638
C      13.998719280477101     11.522205001778060      4.588974635141327
O      13.370362383939780     10.479620980379389      4.615406422933314
O      13.587700715278185     12.699441536953866      4.791120953141360
O      15.129633876583217     14.423683986932769      5.914609208787882
H      14.871875378249163     15.139719014857654      5.345307080907949
H      14.488377196160092     13.650772510642804      5.521121281554392
