35
 generated by VMD
 N        16.411379       13.211880        8.502996
 H        15.586136       12.643528        8.825410
 H        16.983095       13.503960        9.309525
 H        15.478193       14.625566        6.851103
 C        17.221550       12.382024        7.507225
 H        17.966663       13.045430        6.989368
 C        17.881165       11.170054        8.128677
 H        18.635845       11.401167        8.900924
 H        17.146559       10.472312        8.573294
 H        18.408535       10.574602        7.355972
 C        16.121075       11.863022        6.538223
 O        15.029022       11.673333        7.076132
 N        16.467812       11.714952        5.236532
 H        17.436691       11.805597        4.926738
 C        15.527702       11.424531        4.127097
 H        15.641812       12.260895        3.375000
 C        15.875725       10.088963        3.466837
 H        15.745644        9.272398        4.204736
 H        15.100017        9.871436        2.697179
 C        17.289473       10.063018        2.848226
 H        18.032648       10.285521        3.654279
 C        17.449743       11.115786        1.744184
 H        18.491474       11.212225        1.430050
 H        16.863754       10.855030        0.854918
 H        17.101002       12.106375        2.067374
 C        17.605507        8.663069        2.303447
 H        18.585443        8.636882        1.823910
 H        17.597124        7.911651        3.098548
 H        16.868095        8.348432        1.554345
 C        14.028777       11.495147        4.560651
 O        13.360102       10.452821        4.593445
 O        13.602036       12.672948        4.737381
 O        15.159519       14.432741        5.938099
 H        14.886910       15.156549        5.367869
 H        13.708821       13.590245        5.070158
