35

N      16.456897213816163     13.259739045779604      8.432133443039328
H      15.683455263154283     12.773301436517091      8.896681560534768
H      17.060251986636118     13.619579275888144      9.165770339333713
H      15.587655696160990     14.499096900978209      6.658866707797372
C      17.208038614049464     12.340572656629622      7.537897533624116
H      17.977089011369348     12.956203435694833      7.009714959280526
C      17.876626161470366     11.144983943423499      8.218858689063051
H      18.636460604490509     11.447065044232223      8.951487662027798
H      17.147587434233269     10.501892333475910      8.740076381713122
H      18.379965452839222     10.508699535021524      7.474468529371006
C      16.142693448052288     11.772727715932318      6.572904131766394
O      15.105098375951446     11.276109327448530      6.969640167888788
N      16.428599622000156     11.960471589335533      5.213423237551153
H      17.386081685713638     12.151779620466046      4.917532393018789
C      15.553824870579039     11.495585287093508      4.108097100419207
H      15.676138082589523     12.247068592292180      3.265265217934998
C      15.940760181887400     10.100081784500951      3.568657535075578
H      15.899570328728341      9.349194431994043      4.385822417048108
H      15.166157218539581      9.752497174997204      2.849079173554696
C      17.327130497737578     10.080951113907963      2.890599776615951
H      18.091031197422389     10.330162070501599      3.669934957828342
C      17.444170785263243     11.104168931261382      1.749405948987508
H      18.456278333114650     11.101115979202627      1.321571548162004
H      16.744917363795970     10.879563969735702      0.928732728974926
H      17.232922193374392     12.128339291412541      2.085724577646999
C      17.639606873251459      8.683507267792042      2.347127558628270
H      18.639481051701374      8.647084426727424      1.900171396854879
H      17.607101657960211      7.919374952447702      3.130557784017620
H      16.934109091394891      8.374349416576646      1.566877122729056
C      14.054173781050340     11.519317478997888      4.485200345114877
O      13.284154022751922     10.618972476948597      4.264305459368878
O      13.560022256406889     12.710367870656432      4.932353213696349
O      15.205903188651233     14.776721140359635      5.804319948008130
H      14.653277086034649     15.546217343772726      5.981286072695889
H      14.255503072555101     13.395826253412670      5.226956864610783
